<!-- Copyright (C) 2023 TOYOTA MOTOR CORPORATION. ALL RIGHTS RESERVED. -->

<configuration>
<input>
  <net-file value="grid.net.xml"/>
  <route-files value="grid.rou.xml"/>
</input>
<time>
  <begin value="0"/>
  <end value="400"/>
  <step-length value="0.1"/>
</time>
</configuration>
